/*--------------------------------*- C++ -*----------------------------------*\
| =========                 |                                                 |
| \\      /  F ield         | OpenFOAM: The Open Source CFD Toolbox           |
|  \\    /   O peration     | Version:  v2112                                 |
|   \\  /    A nd           | Website:  www.openfoam.com                      |
|    \\/     M anipulation  |                                                 |
\*---------------------------------------------------------------------------*/
FoamFile
{
    version     2.0;
    format      ascii;
    class       dictionary;
    object      blockMeshDict;
}
// * * * * * * * * * * * * * * * * * * * * * * * * * * * * * * * * * * * * * //

scale  1;

// * * * * * * * * * * * * * * * * * * * * * * * * * * * * * * * * * * * //

vertices
(
  // Inlet
  (0 0 -0.005)
  (0.0633612160000000	0.00110597413921081	-0.005)
  (0.0633612160000000	0.00110597413921081	0)
  (0 0 0)
  (0.0633612160000000	-0.00110597413921081	-0.005)
  (0.0633612160000000	-0.00110597413921081	0)

  // Convergence arc
  (0 0 0)
  (0.0633612160000000	0.00110597413921081	0)
  (0.0574092355768241	0.00100208193447280	0.02239100000000000)
  (0 0 0.022391)
  (0.0633612160000000	-0.00110597413921081	0)
  (0.0574092355768241	-0.00100208193447280	0.02239100000000000)

  // Convergent
  (0 0 0.022391)
  (0.0574092355768241	0.00100208193447280	0.02239100000000000)
  (0.0241920878557421	0.00042227446427112	0.05588100000000000)
  (0 0 0.055881)
  (0.0574092355768241	-0.00100208193447280	0.02239100000000000)
  (0.0241920878557421	-0.00042227446427112	0.05588100000000000)

  // throat
  (0 0 0.055881)
  (0.0241920878557421	0.00042227446427112	0.05588100000000000)
  (0.0207135140000000	0.00036155573176154	0.06814800000000000)
  (0 0	0.068148)
  (0.0241920878557421	-0.00042227446427112	0.05588100000000000)
  (0.0207135140000000	-0.00036155573176154	0.06814800000000000)

  // exit
  (0 0	0.068148)
  (0.0207135140000000	0.00036155573176154	0.06814800000000000)
  (0.0519539610000000	0.00090685976253308	0.18496000000000000)
  (0 0	0.18496)
  (0.0207135140000000	-0.00036155573176154	0.06814800000000000)
  (0.0519539610000000	-0.00090685976253308	0.18496000000000000)
);

blocks
(
  hex (0 4 1 0 3 5 2 3) (40 1 3) simpleGrading (((0.6 0.4 1)(0.4 0.6 0.15)) 1 1)
  hex (6 10 7 6 9 11 8 9) (40 1 12) simpleGrading (((0.6 0.4 1)(0.4 0.6 0.15)) 1 1)
  hex (12 16 13 12 15 17 14 15) (40 1 26) simpleGrading (((0.6 0.4 1)(0.4 0.6 0.15)) 1 0.4)
  hex (18 22 19 18 21 23 20 21) (40 1 15) simpleGrading (((0.6 0.4 1)(0.4 0.6 0.15)) 1 1)
  hex (24 28 25 24 27 29 26 27) (40 1 75) simpleGrading (((0.6 0.4 1)(0.4 0.6 0.15)) 1 ((0.6 0.8 1.8)(0.4 0.2 3)))
);

edges
(
  polyLine 7 8
  (
    (	0.0633612160000000	0.00110597413921081	0.00802220000000000	)
(	0.0633590999898165	0.00110593720411567	0.00831544081632653	)
(	0.0633527506366187	0.00110582637574335	0.00860868163265306	)
(	0.0633421639683280	0.00110564158476096	0.00890192244897959	)
(	0.0633273333509926	0.00110538271537245	0.00919516326530612	)
(	0.0633082494679500	0.00110504960495485	0.00948840408163265	)
(	0.0632849002904409	0.00110464204354541	0.00978164489795918	)
(	0.0632572710394573	0.00110415977317558	0.01007488571428570	)
(	0.0632253441385392	0.00110360248704709	0.01036812653061220	)
(	0.0631890991571670	0.00110296982854392	0.01066136734693880	)
(	0.0631485127443169	0.00110226139007242	0.01095460816326530	)
(	0.0631035585516677	0.00110147671172093	0.01124784897959180	)
(	0.0630542071458578	0.00110061527972822	0.01154108979591840	)
(	0.0630004259090917	0.00109967652474855	0.01183433061224490	)
(	0.0629421789272925	0.00109865981989937	0.01212757142857140	)
(	0.0628794268648697	0.00109756447857540	0.01242081224489800	)
(	0.0628121268250449	0.00109638975201059	0.01271405306122450	)
(	0.0627402321945211	0.00109513482656680	0.01300729387755100	)
(	0.0626636924711136	0.00109379882072514	0.01330053469387760	)
(	0.0625824530727673	0.00109238078175227	0.01359377551020410	)
(	0.0624964551261598	0.00109087968201055	0.01388701632653060	)
(	0.0624056352328432	0.00108929441487593	0.01418025714285710	)
(	0.0623099252105785	0.00108762379022302	0.01447349795918370	)
(	0.0622092518071879	0.00108586652943029	0.01476673877551020	)
(	0.0621035363838548	0.00108402125985210	0.01505997959183670	)
(	0.0619926945643520	0.00108208650869592	0.01535322040816330	)
(	0.0618766358461500	0.00108006069623422	0.01564646122448980	)
(	0.0617552631687358	0.00107794212826944	0.01593970204081630	)
(	0.0616284724337472	0.00107572898775792	0.01623294285714290	)
(	0.0614961519706656	0.00107341932548350	0.01652618367346940	)
(	0.0613581819407920	0.00107101104965390	0.01681942448979590	)
(	0.0612144336710175	0.00106850191427167	0.01711266530612250	)
(	0.0610647689074462	0.00106588950610607	0.01740590612244900	)
(	0.0609090389771879	0.00106317123006214	0.01769914693877550	)
(	0.0607470838445315	0.00106034429270617	0.01799238775510200	)
(	0.0605787310451592	0.00105740568366228	0.01828562857142860	)
(	0.0604037944789482	0.00105435215454074	0.01857886938775510	)
(	0.0602220730380923	0.00105118019499175	0.01887211020408160	)
(	0.0600333490425693	0.00104788600539639	0.01916535102040820	)
(	0.0598373864491431	0.00104446546560463	0.01945859183673470	)
(	0.0596339287927967	0.00104091409900296	0.01975183265306120	)
(	0.0594226968103264	0.00103722703103403	0.02004507346938780	)
(	0.0592033856842109	0.00103339894108820	0.02033831428571430	)
(	0.0589756618300450	0.00102942400642803	0.02063155510204080	)
(	0.0587391591317396	0.00102529583647341	0.02092479591836730	)
(	0.0584934745038985	0.00102100739534258	0.02121803673469390	)
(	0.0582381626282723	0.00101655090997658	0.02151127755102040	)
(	0.0579727296681145	0.00101191776042294	0.02180451836734690	)
(	0.0576966257065522	0.00100709834784693	0.02209775918367350	)
(	0.0574092355768241	0.00100208193447280	0.02239100000000000	)
  )

polyLine 19 20
(
  (	0.0241920878557421	0.00042227446427112	0.05588100000000000	)
(	0.0239403125824127	0.00041787971052784	0.05613134693877550	)
(	0.0237020567078383	0.00041372093876761	0.05638169387755100	)
(	0.0234763076531522	0.00040978047436058	0.05663204081632650	)
(	0.0232621973351008	0.00040604316485719	0.05688238775510200	)
(	0.0230589752081708	0.00040249590943678	0.05713273469387760	)
(	0.0228659875034423	0.00039912729652039	0.05738308163265310	)
(	0.0226826610059669	0.00039592732060390	0.05763342857142860	)
(	0.0225084902133255	0.00039288715810974	0.05788377551020410	)
(	0.0223430270519382	0.00038999898788450	0.05813412244897960	)
(	0.0221858725550959	0.00038725584593836	0.05838446938775510	)
(	0.0220366700645162	0.00038465150677784	0.05863481632653060	)
(	0.0218950996286952	0.00038218038562867	0.05888516326530610	)
(	0.0217608733512890	0.00037983745724147	0.05913551020408160	)
(	0.0216337315009500	0.00037761818798871	0.05938585714285710	)
(	0.0215134392369528	0.00037551847871027	0.05963620408163270	)
(	0.0213997838369751	0.00037353461632422	0.05988655102040820	)
(	0.0212925723375650	0.00037166323264096	0.06013689795918370	)
(	0.0211916295162707	0.00036990126914123	0.06038724489795920	)
(	0.0210967961586006	0.00036824594672574	0.06063759183673470	)
(	0.0210079275640189	0.00036669473963724	0.06088793877551020	)
(	0.0209248922538308	0.00036524535290657	0.06113828571428570	)
(	0.0208475708506428	0.00036389570279358	0.06138863265306120	)
(	0.0207758551045289	0.00036264389978879	0.06163897959183670	)
(	0.0207096470453950	0.00036148823381784	0.06188932653061220	)
(	0.0206488582445635	0.00036042716135241	0.06213967346938780	)
(	0.0205934091714683	0.00035945929418133	0.06239002040816330	)
(	0.0205432286337017	0.00035858338963648	0.06264036734693880	)
(	0.0204982532905944	0.00035779834210237	0.06289071428571430	)
(	0.0204584272321247	0.00035710317566595	0.06314106122448980	)
(	0.0204237016162987	0.00035649703778703	0.06339140816326530	)
(	0.0203940343592920	0.00035597919388974	0.06364175510204080	)
(	0.0203693898736096	0.00035554902279203	0.06389210204081630	)
(	0.0203497388503625	0.00035520601290535	0.06414244897959180	)
(	0.0203350580824905	0.00035494975914895	0.06439279591836730	)
(	0.0203253303264064	0.00035477996053489	0.06464314285714290	)
(	0.0203205442001157	0.00035469641838973	0.06489348979591840	)
(	0.0203206941163989	0.00035469903518819	0.06514383673469390	)
(	0.0203257802501372	0.00035478781398283	0.06539418367346940	)
(	0.0203358085393338	0.00035496285842187	0.06564453061224490	)
(	0.0203507907198451	0.00035522437335546	0.06589487755102040	)
(	0.0203707443942982	0.00035557266603860	0.06614522448979590	)
(	0.0203956931361407	0.00035600814794734	0.06639557142857140	)
(	0.0204256666302704	0.00035653133723349	0.06664591836734690	)
(	0.0204607008522221	0.00035714286185237	0.06689626530612240	)
(	0.0205008382884733	0.00035784346340819	0.06714661224489800	)
(	0.0205461282010825	0.00035863400177338	0.06739695918367350	)
(	0.0205966269406094	0.00035951546055061	0.06764730612244900	)
(	0.0206523983121121	0.00036048895346133	0.06789765306122450	)
(	0.0207135140000000	0.00036155573176154	0.06814800000000000	)
)

  polyLine 10 11
  (
    (	0.0633612160000000	-0.00110597413921081	0.00000000000000000	)
(	0.0633612160000000	-0.00110597413921081	0.00802220000000000	)
(	0.0633590999898165	-0.00110593720411567	0.00831544081632653	)
(	0.0633527506366187	-0.00110582637574335	0.00860868163265306	)
(	0.0633421639683280	-0.00110564158476096	0.00890192244897959	)
(	0.0633273333509926	-0.00110538271537245	0.00919516326530612	)
(	0.0633082494679500	-0.00110504960495485	0.00948840408163265	)
(	0.0632849002904409	-0.00110464204354541	0.00978164489795918	)
(	0.0632572710394573	-0.00110415977317558	0.01007488571428570	)
(	0.0632253441385392	-0.00110360248704709	0.01036812653061220	)
(	0.0631890991571670	-0.00110296982854392	0.01066136734693880	)
(	0.0631485127443169	-0.00110226139007242	0.01095460816326530	)
(	0.0631035585516677	-0.00110147671172093	0.01124784897959180	)
(	0.0630542071458578	-0.00110061527972822	0.01154108979591840	)
(	0.0630004259090917	-0.00109967652474855	0.01183433061224490	)
(	0.0629421789272925	-0.00109865981989937	0.01212757142857140	)
(	0.0628794268648697	-0.00109756447857540	0.01242081224489800	)
(	0.0628121268250449	-0.00109638975201059	0.01271405306122450	)
(	0.0627402321945211	-0.00109513482656680	0.01300729387755100	)
(	0.0626636924711136	-0.00109379882072514	0.01330053469387760	)
(	0.0625824530727673	-0.00109238078175227	0.01359377551020410	)
(	0.0624964551261598	-0.00109087968201055	0.01388701632653060	)
(	0.0624056352328432	-0.00108929441487593	0.01418025714285710	)
(	0.0623099252105785	-0.00108762379022302	0.01447349795918370	)
(	0.0622092518071879	-0.00108586652943029	0.01476673877551020	)
(	0.0621035363838548	-0.00108402125985210	0.01505997959183670	)
(	0.0619926945643520	-0.00108208650869592	0.01535322040816330	)
(	0.0618766358461500	-0.00108006069623422	0.01564646122448980	)
(	0.0617552631687358	-0.00107794212826944	0.01593970204081630	)
(	0.0616284724337472	-0.00107572898775792	0.01623294285714290	)
(	0.0614961519706656	-0.00107341932548350	0.01652618367346940	)
(	0.0613581819407920	-0.00107101104965390	0.01681942448979590	)
(	0.0612144336710175	-0.00106850191427167	0.01711266530612250	)
(	0.0610647689074462	-0.00106588950610607	0.01740590612244900	)
(	0.0609090389771879	-0.00106317123006214	0.01769914693877550	)
(	0.0607470838445315	-0.00106034429270617	0.01799238775510200	)
(	0.0605787310451592	-0.00105740568366228	0.01828562857142860	)
(	0.0604037944789482	-0.00105435215454074	0.01857886938775510	)
(	0.0602220730380923	-0.00105118019499175	0.01887211020408160	)
(	0.0600333490425693	-0.00104788600539639	0.01916535102040820	)
(	0.0598373864491431	-0.00104446546560463	0.01945859183673470	)
(	0.0596339287927967	-0.00104091409900296	0.01975183265306120	)
(	0.0594226968103264	-0.00103722703103403	0.02004507346938780	)
(	0.0592033856842109	-0.00103339894108820	0.02033831428571430	)
(	0.0589756618300450	-0.00102942400642803	0.02063155510204080	)
(	0.0587391591317396	-0.00102529583647341	0.02092479591836730	)
(	0.0584934745038985	-0.00102100739534258	0.02121803673469390	)
(	0.0582381626282723	-0.00101655090997658	0.02151127755102040	)
(	0.0579727296681145	-0.00101191776042294	0.02180451836734690	)
(	0.0576966257065522	-0.00100709834784693	0.02209775918367350	)
(	0.0574092355768241	-0.00100208193447280	0.02239100000000000	)
  )

polyLine 22 23
(
  (	0.0241920878557421	-0.00042227446427112	0.05588100000000000	)
(	0.0239403125824127	-0.00041787971052784	0.05613134693877550	)
(	0.0237020567078383	-0.00041372093876761	0.05638169387755100	)
(	0.0234763076531522	-0.00040978047436058	0.05663204081632650	)
(	0.0232621973351008	-0.00040604316485719	0.05688238775510200	)
(	0.0230589752081708	-0.00040249590943678	0.05713273469387760	)
(	0.0228659875034423	-0.00039912729652039	0.05738308163265310	)
(	0.0226826610059669	-0.00039592732060390	0.05763342857142860	)
(	0.0225084902133255	-0.00039288715810974	0.05788377551020410	)
(	0.0223430270519382	-0.00038999898788450	0.05813412244897960	)
(	0.0221858725550959	-0.00038725584593836	0.05838446938775510	)
(	0.0220366700645162	-0.00038465150677784	0.05863481632653060	)
(	0.0218950996286952	-0.00038218038562867	0.05888516326530610	)
(	0.0217608733512890	-0.00037983745724147	0.05913551020408160	)
(	0.0216337315009500	-0.00037761818798871	0.05938585714285710	)
(	0.0215134392369528	-0.00037551847871027	0.05963620408163270	)
(	0.0213997838369751	-0.00037353461632422	0.05988655102040820	)
(	0.0212925723375650	-0.00037166323264096	0.06013689795918370	)
(	0.0211916295162707	-0.00036990126914123	0.06038724489795920	)
(	0.0210967961586006	-0.00036824594672574	0.06063759183673470	)
(	0.0210079275640189	-0.00036669473963724	0.06088793877551020	)
(	0.0209248922538308	-0.00036524535290657	0.06113828571428570	)
(	0.0208475708506428	-0.00036389570279358	0.06138863265306120	)
(	0.0207758551045289	-0.00036264389978879	0.06163897959183670	)
(	0.0207096470453950	-0.00036148823381784	0.06188932653061220	)
(	0.0206488582445635	-0.00036042716135241	0.06213967346938780	)
(	0.0205934091714683	-0.00035945929418133	0.06239002040816330	)
(	0.0205432286337017	-0.00035858338963648	0.06264036734693880	)
(	0.0204982532905944	-0.00035779834210237	0.06289071428571430	)
(	0.0204584272321247	-0.00035710317566595	0.06314106122448980	)
(	0.0204237016162987	-0.00035649703778703	0.06339140816326530	)
(	0.0203940343592920	-0.00035597919388974	0.06364175510204080	)
(	0.0203693898736096	-0.00035554902279203	0.06389210204081630	)
(	0.0203497388503625	-0.00035520601290535	0.06414244897959180	)
(	0.0203350580824905	-0.00035494975914895	0.06439279591836730	)
(	0.0203253303264064	-0.00035477996053489	0.06464314285714290	)
(	0.0203205442001157	-0.00035469641838973	0.06489348979591840	)
(	0.0203206941163989	-0.00035469903518819	0.06514383673469390	)
(	0.0203257802501372	-0.00035478781398283	0.06539418367346940	)
(	0.0203358085393338	-0.00035496285842187	0.06564453061224490	)
(	0.0203507907198451	-0.00035522437335546	0.06589487755102040	)
(	0.0203707443942982	-0.00035557266603860	0.06614522448979590	)
(	0.0203956931361407	-0.00035600814794734	0.06639557142857140	)
(	0.0204256666302704	-0.00035653133723349	0.06664591836734690	)
(	0.0204607008522221	-0.00035714286185237	0.06689626530612240	)
(	0.0205008382884733	-0.00035784346340819	0.06714661224489800	)
(	0.0205461282010825	-0.00035863400177338	0.06739695918367350	)
(	0.0205966269406094	-0.00035951546055061	0.06764730612244900	)
(	0.0206523983121121	-0.00036048895346133	0.06789765306122450	)
(	0.0207135140000000	-0.00036155573176154	0.06814800000000000	)
)

);

boundary
(
     front
     {
           type wedge;
           faces
           (
               (0 3 2 1)
               (6 9 8 7)
               (12 15 14 13)
               (18 21 20 19)
               (24 27 26 25)
           );
      }
     back
     {
           type wedge;
           faces
           (
               (0 4 5 3)
               (6 10 11 9)
               (12 16 17 15)
               (18 22 23 21)
               (24 28 29 27)
           );
      }
     Wall
     {
           type wall;
           faces
           (
               (1 2 5 4)
               (7 8 11 10)
               (13 14 17 16)
               (19 20 23 22)
               (25 26 29 28)
           );
     }
     inlet
     {
           type patch;
           faces
           (
               (0 1 4 0)
	       // (6 7 10 6)
           );
      }
     outlet
     {
           type patch;
           faces
           (
              (27 29 26 27)
           );
      }
      block1I2
      {
            type patch;
            faces
            (
 	            (3 5 2 3)
            );
      }
      block2I1
      {
            type patch;
            faces
            (
              (6 7 10 6)
            );
      }
      block2I2
      {
            type patch;
            faces
            (
              (9 11 8 9)
            );
      }
      block3I1
      {
            type patch;
            faces
            (
              (12 13 16 12)
            );
      }
      block3I2
      {
            type patch;
            faces
            (
              (15 17 14 15)
            );
      }
      block4I1
      {
            type patch;
            faces
            (
              (18 19 22 18)
            );
      }
      block4I2
      {
            type patch;
            faces
            (
              (21 23 20 21)
            );
      }
      block5I1
      {
            type patch;
            faces
            (
              (24 25 28 24)
            );
      }
     axis
     {
           type empty;
           faces
           (
               (0 3 3 0)
               (6 9 9 6)
               (12 15 15 12)
               (18 21 21 18)
               (24 27 27 24)
           );
      }
);

mergePatchPairs
(
  (block1I2 block2I1)
  (block2I2 block3I1)
  (block3I2 block4I1)
  (block4I2 block5I1)
);
// ************************************************************************* //
