/*--------------------------------*- C++ -*----------------------------------*\
| =========                 |                                                 |
| \\      /  F ield         | OpenFOAM: The Open Source CFD Toolbox           |
|  \\    /   O peration     | Version:  v2112                                 |
|   \\  /    A nd           | Website:  www.openfoam.com                      |
|    \\/     M anipulation  |                                                 |
\*---------------------------------------------------------------------------*/
FoamFile
{
    version     2.0;
    format      ascii;
    class       dictionary;
    object      controlDict;
}
// * * * * * * * * * * * * * * * * * * * * * * * * * * * * * * * * * * * * * //

application     rocketMotor;

startFrom       latestTime;

startTime       0;

stopAt          endTime;

endTime         0.02;

deltaT          1e-7;

writeControl    adjustableRunTime;

writeInterval   1e-3;

purgeWrite      0;

writeFormat     ascii;

writePrecision  15;

writeCompression off;

timeFormat      general;

timePrecision   12;

runTimeModifiable yes;

adjustTimeStep  yes;

maxCo           0.5;

maxDeltaT       5e-6;

functions
{

}

// ************************************************************************* //
