/*--------------------------------*- C++ -*----------------------------------*\
| =========                 |                                                 |
| \\      /  F ield         | OpenFOAM: The Open Source CFD Toolbox           |
|  \\    /   O peration     | Version:  2112                                  |
|   \\  /    A nd           | Website:  www.openfoam.com                      |
|    \\/     M anipulation  |                                                 |
\*---------------------------------------------------------------------------*/
FoamFile
{
    version     2.0;
    format      ascii;
    arch        "LSB;label=64;scalar=64";
    class       polyBoundaryMesh;
    location    "constant/polyMesh";
    object      boundary;
}
// * * * * * * * * * * * * * * * * * * * * * * * * * * * * * * * * * * * * * //

5
(
    front
    {
        type            wedge;
        inGroups        1(wedge);
        nFaces          5240;
        startFace       10309;
    }
    back
    {
        type            wedge;
        inGroups        1(wedge);
        nFaces          5240;
        startFace       15549;
    }
    Wall
    {
        type            wall;
        inGroups        1(wall);
        nFaces          131;
        startFace       20789;
    }
    inlet
    {
        type            patch;
        nFaces          40;
        startFace       20920;
    }
    outlet
    {
        type            patch;
        nFaces          40;
        startFace       20960;
    }
)

// ************************************************************************* //
